Circuit: * C:\Users\Alexa\eln1-project-2020-ak-team\ELNProject\RprCprAmpOp.asc

Direct Newton iteration for .op point succeeded.
.step x=1
.step x=2
.step x=3
.step x=4
.step x=5

Date: Thu May 14 10:26:22 2020
Total elapsed time: 1.066 seconds.

tnom = 27
temp = 27
method = modified trap
totiter = 15888
traniter = 15885
tranpoints = 7414
accept = 5918
rejected = 1496
matrix size = 14
fillins = 2
solver = Normal
Matrix Compiler1: 780 bytes object code size  0.9/0.6/[0.3]
Matrix Compiler2: 1.28 KB object code size  0.5/0.8/[0.5]

