Circuit: * C:\Users\Alexa\OneDrive\Documents\HES\2e_Annee\Electronique\LTSpice\ELNProject\RprCpr.asc

WARNING: Less than two connections to node VCC.  This node is used by V2.
WARNING: Less than two connections to node VEE.  This node is used by V3.
WARNING: Less than two connections to node NC_01.  This node is used by V4.
Direct Newton iteration for .op point succeeded.
.step x=1
.step x=2
.step x=3
.step x=4
.step x=5

Date: Wed Apr  8 14:03:56 2020
Total elapsed time: 0.326 seconds.

tnom = 27
temp = 27
method = modified trap
totiter = 8811
traniter = 8808
tranpoints = 4405
accept = 4296
rejected = 109
matrix size = 9
fillins = 0
solver = Normal
Matrix Compiler1: 134 bytes object code size  0.1/0.0/[0.0]
Matrix Compiler2: off  [0.1]/0.1/0.1

