Circuit: * C:\Cours\HES-SO\2eme\ELN\Projet_arrosoir\eln1-project-2020-ak-team\ELNProject\RprCpr.asc

WARNING: Less than two connections to node VCC.  This node is used by V2.
WARNING: Less than two connections to node VEE.  This node is used by V3.
WARNING: Less than two connections to node NC_01.  This node is used by V4.
Direct Newton iteration for .op point succeeded.
.step x=1
.step x=2
.step x=3
.step x=4
.step x=5

Date: Thu Apr 23 15:45:47 2020
Total elapsed time: 0.269 seconds.

tnom = 27
temp = 27
method = modified trap
totiter = 273
traniter = 270
tranpoints = 136
accept = 131
rejected = 5
matrix size = 9
fillins = 0
solver = Normal
Matrix Compiler1:       9 opcodes  0.1/0.0/[0.0]
Matrix Compiler2: 409 bytes object code size  0.1/0.1/[0.0]

